135
label, x, y, z
Fe      0.1035808339429923E-01  -0.4038171094409494E-01  -0.1441213838997945E-01
Fe      0.8344605822662569      -0.4039154309271773E-01   0.5854628028167165    
Fe       1.652986154331959      -0.4039905901366254E-01   0.3008281393961134    
Fe       2.464914487094127      -0.4040453911499676E-01  -0.3683535598797236E-02
Fe       3.272003355755122      -0.4040826391418482E-01   0.5393112465037837    
Fe       4.078532855165316      -0.4041051407344381E-01   0.2048444460014215    
Fe       4.886071233139451      -0.4041157034173661E-01  -0.1324978285154765    
Fe       5.692600486436338      -0.4041171355872708E-01   0.3990575833390259    
Fe       6.499689851014444      -0.4041122462208929E-01   0.7602175714186078E-01
Fe       7.311616449646984      -0.4041038447480484E-01  -0.2284982499206791    
Fe       8.130142037359944      -0.4040947407870264E-01   0.3528809547140456    
Fe       8.954242292687116      -0.4040877440193764E-01   0.8671694582813742E-01
Fe       9.780535851326583      -0.4040856639182754E-01  -0.1658874523756198    
Fe       10.60602680912501      -0.4040913096153248E-01   0.4531494717246102    
Fe       11.43151664172258      -0.4041074896323348E-01   0.2061600514011469    
Fe      0.4233359961722448       0.6623263961734027       0.2927978951268206    
Fe       1.244618423092678       0.6656099696810815       0.1748267290415220E-01
Fe       2.060018170662774       0.6699723541898128       0.5892949624041974    
Fe       2.869558851513122       0.6721033873314172       0.2755233386292938    
Fe       3.675524253145936       0.6694204275527548      -0.5618332521184560E-01
Fe       4.482301818553275       0.6666464294662716       0.4691884253625096    
Fe       5.289080274788982       0.6694182484819413       0.1285340197221557    
Fe       6.095044398229663       0.6720984611468903      -0.2031758723101663    
Fe       6.904584591989384       0.6699635630243445       0.3490720246593040    
Fe       7.719984660405394       0.6655956219739555       0.5485165169570182E-01
Fe       8.541265209405712       0.6623042552056543      -0.2204734311830860    
Fe       9.366947278398733       0.6628081039272271       0.3877806793740871    
Fe       10.19334034198879       0.6659444704723222       0.1416694617907107    
Fe       11.01871156506236       0.6659434148098641      -0.1013902846858746    
Fe       11.84510445237876       0.6628046555927021       0.5185215096601939    
Fe      0.8342352426094024        1.367759029529175       0.6057475944630264    
Fe       1.652107285116275        1.375844447877840       0.3208767895756880    
Fe       2.466026281476616        1.383363673159002       0.1888273846727567E-01
Fe       3.274845950417401        1.384804563939480       0.5621520536166259    
Fe       4.079303511892156        1.376240298607254       0.2147012082731269    
Fe       4.885299086073196        1.376239238550169      -0.1423428747226990    
Fe       5.689756506350365        1.384801113668915       0.3762296789835922    
Fe       6.498576884745998        1.383356985935210       0.5347077241435698E-01
Fe       7.312494462101978        1.375833130646207      -0.2485280334347749    
Fe       8.130366942824505        1.367741099751657       0.3326198031821984    
Fe       8.952570002610303        1.363475315874365       0.6557573012228346E-01
Fe       9.779361911449215        1.367781161347227      -0.1806580744570542    
Fe       10.60602588506011        1.373500353381821       0.4531558295150716    
Fe       11.43268878557174        1.367778980587002       0.2209439668365619    
Fe       12.25948050989453        1.363470390735677      -0.2529192357960440E-01
Fe       1.238358601601846        2.077930897852131       0.5809277810488121E-01
Fe       2.054701019910971        2.088812049254152       0.6325433082794201    
Fe       2.870383503916286        2.097746508693225       0.3263240515207950    
Fe       3.681274727351911        2.097795730133978      -0.7432203721590390E-02
Fe       4.482300600213174        2.081157090023094       0.4691957669668630    
Fe       5.283327413769083        2.097793556424806       0.7979813246373391E-01
Fe       6.094217515000231        2.097741587077868      -0.2539595488761364    
Fe       6.909899778155996        2.088803263616318       0.3058436994746113    
Fe       7.726242888008575        2.077916549060005       0.1426574667889233E-01
Fe       8.543312169524800        2.068122842832762      -0.2640544200319077    
Fe       9.363423359082120        2.063953929681779       0.3425674343739455    
Fe       10.19179475370863        2.075384235830488       0.1196833829727053    
Fe       11.02025448151335        2.075383182296906      -0.7938859414239445E-01
Fe       11.84862580655908        2.063950482075988       0.5637515642709261    
Fe       12.66873685596356        2.068116159718306       0.3043468307328433    
Fe       1.633199261135329        2.790763296994157       0.3841213103375054    
Fe       2.449414747862569        2.801768629454010       0.9278596265938691E-01
Fe       3.267337945567602        2.810385495135791       0.6597074939979256    
Fe       4.089687039355113        2.813858886904155       0.3253253219775876    
Fe       4.874912486760432        2.813857828205442      -0.2529500452348752    
Fe       5.697261545656655        2.810382050699631       0.2786923384028031    
Fe       6.515185674624038        2.801761940048402      -0.2041193850470909E-01
Fe       7.331400055795971        2.790751983106295      -0.3117484754777674    
Fe       8.146706583515641        2.779273436838666       0.2682871200696630    
Fe       8.960846694295407        2.769364188158272      -0.1005331920922896E-01
Fe       9.773807825314424        2.763834909676074      -0.2676204650971417    
Fe       10.60602427887618        2.787422250915597       0.4531645524079264    
Fe       11.43823970086635        2.763832728141644       0.3079242135830457    
Fe       12.25120080565059        2.769359262686157       0.5035677438241827E-01
Fe       13.06534087220684        2.779264645376026       0.6380408392167386    
Fe       2.022981283456689        3.503876070321418       0.7173409782056032    
Fe       2.837122347470816        3.513781465736467       0.4390000528584983    
Fe       3.650083452255038        3.519307998029878       0.1814326245963634    
Fe       4.482298881041490        3.495718474880912       0.9022173426052918    
Fe       5.314515327299279        3.519305816314259       0.7569773107127289    
Fe       6.127475461367868        3.513776545369085       0.4994101310112739    
Fe       6.941616568682472        3.503867285533917        1.087094708112902    
Fe       7.756923096656866        3.492388739090958       0.8011053018086417    
Fe       8.573137478084185        3.481378782606366       0.5097687635034487    
Fe       9.391061607720545        3.472758672962514        1.076689484038646    
Fe       10.21340966286626        3.469282891212282       0.7423069825281635    
Fe       10.99863611560314        3.469281836350298       0.1640314594840163    
Fe       11.82098420604742        3.472755224374104       0.6956743433515120    
Fe       12.63890840647446        3.481372099461754       0.3965708579548698    
Fe       13.45512389279351        3.492377432375018       0.1052355123840782    
Fe       2.419586298133767        4.215024568704429       0.1850099979024541    
Fe       3.239696340291972        4.219190245689061       0.7916302184425253    
Fe       4.068068676068193        4.207757538481959       0.5687454442596895    
Fe       4.896527387229233        4.207756474629846       0.3696733637851805    
Fe       5.724899796613417        4.219186797006096        1.012814405465683    
Fe       6.545010984090434        4.215017880570864       0.7534112516344911    
Fe       7.362080265057112        4.205224173401689       0.4750910802895654    
Fe       8.178423374781973        4.194337458890274        1.049538123591739    
Fe       8.994104639846119        4.185399144525831       0.7433164002309717    
Fe       9.804995736149399        4.185347172144703       0.4095586724771164    
Fe       10.60602254915089        4.201983635762065       0.8861860216935125    
Fe       11.40704842210538        4.185344991851552       0.4967890042416427    
Fe       12.21793964916424        4.185394218960632       0.1630327627502079    
Fe       13.03362113421344        4.194328666911108       0.7228385234418344    
Fe       13.84996455222887        4.205209831318863       0.4312640461407549    
Fe       2.828842646028859        4.919670335487395       0.5146487569566929    
Fe       3.655634371302111        4.915361742904596       0.2684128730960255    
Fe       4.482297271194813        4.909640372423530       0.9022260130421654    
Fe       5.308961245559162        4.915359567199619       0.6700149158932129    
Fe       6.135752143342927        4.919665410671159       0.4237810663806383    
Fe       6.957956211576051        4.915399623995159        1.022762026047666    
Fe       7.775828691044391        4.907307592487521       0.7378848574393152    
Fe       8.589746267173537        4.899783737917772       0.4358860461025600    
Fe       9.398566643872044        4.898339613066692       0.9791521321620584    
Fe       10.20302307782557        4.906901479084887       0.6316997613262398    
Fe       11.00901963796067        4.906900424350837       0.2746555949031405    
Fe       11.81347621271684        4.898336165279352       0.7932298126349221    
Fe       12.62229687048037        4.899777054207389       0.4704740780495487    
Fe       13.43621586825016        4.907296280520838       0.1684800326632631    
Fe       14.25408791193421        4.915381698554523       0.7496342329810420    
Fe       3.243217691622340        5.620336072809387       0.8368602794671980    
Fe       4.069611591193753        5.617197310285688       0.5907471230704434    
Fe       4.894981803063795        5.617196253176307       0.3476873215111271    
Fe       5.721375878242926        5.620332622877362       0.9676011574048032    
Fe       6.547057946347027        5.620836470250985       0.7098302631544754    
Fe       7.368338493619666        5.617545102528227       0.4345051745026872    
Fe       8.183738560169818        5.613177161438625        1.006309795614261    
Fe       8.993277763895341        5.611042264219111       0.6925327292570571    
Fe       9.799242875374722        5.613722478493489       0.3608227898480136    
Fe       10.60602133206765        5.616494296330307       0.8861933827484161    
Fe       11.41279889693981        5.613720296776713       0.5455401340672837    
Fe       12.21876429892998        5.611037338153674       0.2138334746060940    
Fe       13.02830398653878        5.613168367938012       0.7660868755988856    
Fe       13.84370473093669        5.617530757505685       0.4718741524443485    
Fe       14.66498615043674        5.620814328241316       0.1965589082967262    
 
   6.123724356960000      -6.363961030700000     -0.4490502093695105    
   6.123724356960000       6.363961030700000      0.4169751944146375    
   0.000000000000000       0.000000000000000      0.8660254038000000    
 
   2.850000000000000    
