4
label, x, y, z
Zr       0.000000000000000        0.000000000000000        0.000000000000000    
Zr       0.000000000000000       0.8660254037844389      -0.5000000000000000    
Zr      0.7990000000000000        1.154700538379253        0.000000000000000    
Zr      0.7990000000000000       0.2886751345948133      -0.5000000000000000    
 
   1.598000000000000       0.000000000000000       0.000000000000000    
   0.000000000000000       1.732050807568880       0.000000000000000    
   0.000000000000000       0.000000000000000      -1.000000000000000    
 
   3.234000000000000    
