6
label, x, y, z
Fe       0.000000000000000        0.000000000000000        0.000000000000000    
Fe       0.000000000000000        0.000000000000000       0.9999999999999999    
Fe     -0.4999999999999999      -0.4999999999999999        1.500000000000000    
Fe      0.5000000000000000      -0.4999999999999999       0.4999999999999999    
Fe       0.000000000000000       -1.000000000000000        1.000000000000000    
Fe     -0.1558207753859869E-15   -1.000000000000000        2.000000000000000    
 
  -1.000000000000000      -1.000000000000000       2.000000000000000    
   1.000000000000000      -1.000000000000000       0.000000000000000    
  0.4999999999999999      0.4999999999999999      0.4999999999999999    
 
   2.850000000000000    
