486
label, x, y, z
Cu       0.000000000000000        0.000000000000000        0.000000000000000    
Cu       0.000000000000000        1.807500000000000        1.807500000000000    
Cu       0.000000000000000        0.000000000000000        3.615000000000000    
Cu       1.807500000000000        0.000000000000000        1.807500000000000    
Cu       1.807500000000000       -1.807500000000000        3.615000000000000    
Cu       1.807500000000000        0.000000000000000        5.422500000000000    
Cu       1.807500000000000        1.807500000000000        0.000000000000000    
Cu       1.807500000000000        3.615000000000000        1.807500000000000    
Cu       1.807500000000000        1.807500000000000        3.615000000000000    
Cu       3.615000000000000        1.807500000000000        1.807500000000000    
Cu       3.615000000000000        0.000000000000000        3.615000000000000    
Cu       3.615000000000000        1.807500000000000        5.422500000000000    
Cu       3.615000000000000        3.615000000000000        0.000000000000000    
Cu       3.615000000000000        5.422500000000000        1.807500000000000    
Cu       3.615000000000000        3.615000000000000        3.615000000000000    
Cu       5.422500000000000        3.615000000000000        1.807500000000000    
Cu       5.422500000000000        1.807500000000000        3.615000000000000    
Cu       5.422500000000000        3.615000000000000        5.422500000000000    
Cu       5.422500000000000        5.422500000000000        0.000000000000000    
Cu       5.422500000000000        7.230000000000000        1.807500000000000    
Cu       5.422500000000000        5.422500000000000        3.615000000000000    
Cu       7.230000000000000        5.422500000000000        1.807500000000000    
Cu       7.230000000000000        3.615000000000000        3.615000000000000    
Cu       7.230000000000000        5.422500000000000        5.422500000000000    
Cu       7.230000000000000        7.230000000000000        0.000000000000000    
Cu       7.230000000000000        9.037500000000001        1.807500000000000    
Cu       7.230000000000000        7.230000000000000        3.615000000000000    
Cu       9.037500000000001        7.230000000000000        1.807500000000000    
Cu       9.037500000000001        5.422500000000000        3.615000000000000    
Cu       9.037500000000001        7.230000000000000        5.422500000000000    
Cu       9.037500000000001        9.037500000000001        0.000000000000000    
Cu       9.037500000000001        10.84500000000000        1.807500000000000    
Cu       9.037500000000001        9.037500000000001        3.615000000000000    
Cu       10.84500000000000        9.037500000000001        1.807500000000000    
Cu       10.84500000000000        7.230000000000001        3.615000000000000    
Cu       10.84500000000000        9.037500000000001        5.422500000000000    
Cu       10.84500000000000        10.84500000000000        0.000000000000000    
Cu       10.84500000000000        12.65250000000000        1.807500000000000    
Cu       10.84500000000000        10.84500000000000        3.615000000000000    
Cu       12.65250000000000        10.84500000000000        1.807500000000000    
Cu       12.65250000000000        9.037500000000001        3.615000000000000    
Cu       12.65250000000000        10.84500000000000        5.422500000000000    
Cu       12.65250000000000        12.65250000000000        0.000000000000000    
Cu       12.65250000000000        14.46000000000000        1.807500000000000    
Cu       12.65250000000000        12.65250000000000        3.615000000000000    
Cu       14.46000000000000        12.65250000000000        1.807500000000000    
Cu       14.46000000000000        10.84500000000000        3.615000000000000    
Cu       14.46000000000000        12.65250000000000        5.422500000000000    
Cu       14.46000000000000        14.46000000000000        0.000000000000000    
Cu       14.46000000000000        16.26750000000000        1.807500000000000    
Cu       14.46000000000000        14.46000000000000        3.615000000000000    
Cu       16.26750000000000        14.46000000000000        1.807500000000000    
Cu       16.26750000000000        12.65250000000000        3.615000000000000    
Cu       16.26750000000000        14.46000000000000        5.422500000000000    
Cu       3.615000000000000       -3.615000000000000        3.615000000000000    
Cu       3.615000000000000       -1.807500000000000        5.422500000000000    
Cu       3.615000000000000       -3.615000000000000        7.230000000000000    
Cu       5.422500000000000       -3.615000000000000        5.422500000000000    
Cu       5.422500000000000       -5.422500000000000        7.230000000000000    
Cu       5.422500000000000       -3.615000000000000        9.037500000000001    
Cu       5.422500000000000       -1.807500000000000        3.615000000000000    
Cu       5.422500000000000        0.000000000000000        5.422500000000000    
Cu       5.422500000000000       -1.807500000000000        7.230000000000000    
Cu       7.230000000000000       -1.807500000000000        5.422500000000000    
Cu       7.230000000000000       -3.615000000000000        7.230000000000000    
Cu       7.230000000000000       -1.807500000000000        9.037500000000001    
Cu       7.230000000000000        0.000000000000000        3.615000000000000    
Cu       7.230000000000000        1.807500000000000        5.422500000000000    
Cu       7.230000000000000        0.000000000000000        7.230000000000000    
Cu       9.037500000000001        0.000000000000000        5.422500000000000    
Cu       9.037500000000001       -1.807500000000000        7.230000000000000    
Cu       9.037500000000001        0.000000000000000        9.037500000000001    
Cu       9.037500000000001        1.807500000000000        3.615000000000000    
Cu       9.037500000000001        3.615000000000000        5.422500000000000    
Cu       9.037500000000001        1.807500000000000        7.230000000000000    
Cu       10.84500000000000        1.807500000000000        5.422500000000000    
Cu       10.84500000000000        0.000000000000000        7.230000000000000    
Cu       10.84500000000000        1.807500000000000        9.037500000000001    
Cu       10.84500000000000        3.615000000000000        3.615000000000000    
Cu       10.84500000000000        5.422500000000000        5.422500000000000    
Cu       10.84500000000000        3.615000000000000        7.230000000000000    
Cu       12.65250000000000        3.615000000000000        5.422500000000000    
Cu       12.65250000000000        1.807500000000000        7.230000000000000    
Cu       12.65250000000000        3.615000000000000        9.037500000000001    
Cu       12.65250000000000        5.422500000000001        3.615000000000000    
Cu       12.65250000000000        7.230000000000001        5.422500000000000    
Cu       12.65250000000000        5.422500000000001        7.230000000000000    
Cu       14.46000000000000        5.422500000000001        5.422500000000000    
Cu       14.46000000000000        3.615000000000001        7.230000000000000    
Cu       14.46000000000000        5.422500000000001        9.037500000000001    
Cu       14.46000000000000        7.230000000000000        3.615000000000000    
Cu       14.46000000000000        9.037500000000001        5.422500000000000    
Cu       14.46000000000000        7.230000000000000        7.230000000000000    
Cu       16.26750000000000        7.230000000000000        5.422500000000000    
Cu       16.26750000000000        5.422500000000000        7.230000000000000    
Cu       16.26750000000000        7.230000000000000        9.037500000000001    
Cu       16.26750000000000        9.037500000000000        3.615000000000000    
Cu       16.26750000000000        10.84500000000000        5.422500000000000    
Cu       16.26750000000000        9.037500000000000        7.230000000000000    
Cu       18.07500000000000        9.037500000000000        5.422500000000000    
Cu       18.07500000000000        7.230000000000000        7.230000000000000    
Cu       18.07500000000000        9.037500000000000        9.037500000000001    
Cu       18.07500000000000        10.84500000000000        3.615000000000000    
Cu       18.07500000000000        12.65250000000000        5.422500000000000    
Cu       18.07500000000000        10.84500000000000        7.230000000000000    
Cu       19.88250000000000        10.84500000000000        5.422500000000000    
Cu       19.88250000000000        9.037500000000001        7.230000000000000    
Cu       19.88250000000000        10.84500000000000        9.037500000000001    
Cu       7.230000000000000       -7.230000000000000        7.230000000000000    
Cu       7.230000000000000       -5.422500000000000        9.037500000000001    
Cu       7.230000000000000       -7.230000000000000        10.84500000000000    
Cu       9.037500000000001       -7.230000000000000        9.037500000000001    
Cu       9.037500000000001       -9.037500000000001        10.84500000000000    
Cu       9.037500000000001       -7.230000000000000        12.65250000000000    
Cu       9.037500000000001       -5.422500000000000        7.230000000000000    
Cu       9.037500000000001       -3.615000000000000        9.037500000000001    
Cu       9.037500000000001       -5.422500000000000        10.84500000000000    
Cu       10.84500000000000       -5.422500000000000        9.037500000000001    
Cu       10.84500000000000       -7.230000000000000        10.84500000000000    
Cu       10.84500000000000       -5.422500000000000        12.65250000000000    
Cu       10.84500000000000       -3.615000000000000        7.230000000000000    
Cu       10.84500000000000       -1.807500000000000        9.037500000000001    
Cu       10.84500000000000       -3.615000000000000        10.84500000000000    
Cu       12.65250000000000       -3.615000000000000        9.037500000000001    
Cu       12.65250000000000       -5.422500000000000        10.84500000000000    
Cu       12.65250000000000       -3.615000000000000        12.65250000000000    
Cu       12.65250000000000       -1.807500000000000        7.230000000000000    
Cu       12.65250000000000        0.000000000000000        9.037500000000001    
Cu       12.65250000000000       -1.807500000000000        10.84500000000000    
Cu       14.46000000000000       -1.807500000000000        9.037500000000001    
Cu       14.46000000000000       -3.615000000000000        10.84500000000000    
Cu       14.46000000000000       -1.807500000000000        12.65250000000000    
Cu       14.46000000000000        0.000000000000000        7.230000000000000    
Cu       14.46000000000000        1.807500000000000        9.037500000000001    
Cu       14.46000000000000        0.000000000000000        10.84500000000000    
Cu       16.26750000000000        0.000000000000000        9.037500000000001    
Cu       16.26750000000000       -1.807500000000000        10.84500000000000    
Cu       16.26750000000000        0.000000000000000        12.65250000000000    
Cu       16.26750000000000        1.807500000000001        7.230000000000000    
Cu       16.26750000000000        3.615000000000001        9.037500000000001    
Cu       16.26750000000000        1.807500000000001        10.84500000000000    
Cu       18.07500000000000        1.807500000000001        9.037500000000001    
Cu       18.07500000000000       0.8881784197001252E-15    10.84500000000000    
Cu       18.07500000000000        1.807500000000001        12.65250000000000    
Cu       18.07500000000000        3.615000000000000        7.230000000000000    
Cu       18.07500000000000        5.422500000000000        9.037500000000001    
Cu       18.07500000000000        3.615000000000000        10.84500000000000    
Cu       19.88250000000000        3.615000000000000        9.037500000000001    
Cu       19.88250000000000        1.807500000000000        10.84500000000000    
Cu       19.88250000000000        3.615000000000000        12.65250000000000    
Cu       19.88250000000000        5.422499999999999        7.230000000000000    
Cu       19.88250000000000        7.230000000000000        9.037500000000001    
Cu       19.88250000000000        5.422499999999999        10.84500000000000    
Cu       21.69000000000000        5.422499999999999        9.037500000000001    
Cu       21.69000000000000        3.614999999999999        10.84500000000000    
Cu       21.69000000000000        5.422499999999999        12.65250000000000    
Cu       21.69000000000000        7.230000000000000        7.230000000000000    
Cu       21.69000000000000        9.037500000000001        9.037500000000001    
Cu       21.69000000000000        7.230000000000000        10.84500000000000    
Cu       23.49750000000000        7.230000000000000        9.037500000000001    
Cu       23.49750000000000        5.422500000000000        10.84500000000000    
Cu       23.49750000000000        7.230000000000000        12.65250000000000    
Cu       10.84500000000000       -10.84500000000000        10.84500000000000    
Cu       10.84500000000000       -9.037500000000001        12.65250000000000    
Cu       10.84500000000000       -10.84500000000000        14.46000000000000    
Cu       12.65250000000000       -10.84500000000000        12.65250000000000    
Cu       12.65250000000000       -12.65250000000000        14.46000000000000    
Cu       12.65250000000000       -10.84500000000000        16.26750000000000    
Cu       12.65250000000000       -9.037500000000001        10.84500000000000    
Cu       12.65250000000000       -7.230000000000001        12.65250000000000    
Cu       12.65250000000000       -9.037500000000001        14.46000000000000    
Cu       14.46000000000000       -9.037500000000001        12.65250000000000    
Cu       14.46000000000000       -10.84500000000000        14.46000000000000    
Cu       14.46000000000000       -9.037500000000001        16.26750000000000    
Cu       14.46000000000000       -7.230000000000000        10.84500000000000    
Cu       14.46000000000000       -5.422500000000000        12.65250000000000    
Cu       14.46000000000000       -7.230000000000000        14.46000000000000    
Cu       16.26750000000000       -7.230000000000000        12.65250000000000    
Cu       16.26750000000000       -9.037500000000001        14.46000000000000    
Cu       16.26750000000000       -7.230000000000000        16.26750000000000    
Cu       16.26750000000000       -5.422500000000000        10.84500000000000    
Cu       16.26750000000000       -3.615000000000000        12.65250000000000    
Cu       16.26750000000000       -5.422500000000000        14.46000000000000    
Cu       18.07500000000000       -5.422500000000000        12.65250000000000    
Cu       18.07500000000000       -7.230000000000000        14.46000000000000    
Cu       18.07500000000000       -5.422500000000000        16.26750000000000    
Cu       18.07500000000000       -3.615000000000000        10.84500000000000    
Cu       18.07500000000000       -1.807500000000000        12.65250000000000    
Cu       18.07500000000000       -3.615000000000000        14.46000000000000    
Cu       19.88250000000000       -3.615000000000000        12.65250000000000    
Cu       19.88250000000000       -5.422500000000000        14.46000000000000    
Cu       19.88250000000000       -3.615000000000000        16.26750000000000    
Cu       19.88250000000000       -1.807499999999999        10.84500000000000    
Cu       19.88250000000000       0.8881784197001252E-15    12.65250000000000    
Cu       19.88250000000000       -1.807499999999999        14.46000000000000    
Cu       21.69000000000000       -1.807499999999999        12.65250000000000    
Cu       21.69000000000000       -3.614999999999999        14.46000000000000    
Cu       21.69000000000000       -1.807499999999999        16.26750000000000    
Cu       21.69000000000000        0.000000000000000        10.84500000000000    
Cu       21.69000000000000        1.807500000000000        12.65250000000000    
Cu       21.69000000000000        0.000000000000000        14.46000000000000    
Cu       23.49750000000000        0.000000000000000        12.65250000000000    
Cu       23.49750000000000       -1.807500000000000        14.46000000000000    
Cu       23.49750000000000        0.000000000000000        16.26750000000000    
Cu       23.49750000000000        1.807499999999999        10.84500000000000    
Cu       23.49750000000000        3.614999999999999        12.65250000000000    
Cu       23.49750000000000        1.807499999999999        14.46000000000000    
Cu       25.30500000000000        1.807499999999999        12.65250000000000    
Cu       25.30500000000000      -0.8881784197001252E-15    14.46000000000000    
Cu       25.30500000000000        1.807499999999999        16.26750000000000    
Cu       25.30500000000000        3.615000000000000        10.84500000000000    
Cu       25.30500000000000        5.422500000000000        12.65250000000000    
Cu       25.30500000000000        3.615000000000000        14.46000000000000    
Cu       27.11250000000000        3.615000000000000        12.65250000000000    
Cu       27.11250000000000        1.807500000000000        14.46000000000000    
Cu       27.11250000000000        3.615000000000000        16.26750000000000    
Cu       14.46000000000000       -14.46000000000000        14.46000000000000    
Cu       14.46000000000000       -12.65250000000000        16.26750000000000    
Cu       14.46000000000000       -14.46000000000000        18.07500000000000    
Cu       16.26750000000000       -14.46000000000000        16.26750000000000    
Cu       16.26750000000000       -16.26750000000000        18.07500000000000    
Cu       16.26750000000000       -14.46000000000000        19.88250000000000    
Cu       16.26750000000000       -12.65250000000000        14.46000000000000    
Cu       16.26750000000000       -10.84500000000000        16.26750000000000    
Cu       16.26750000000000       -12.65250000000000        18.07500000000000    
Cu       18.07500000000000       -12.65250000000000        16.26750000000000    
Cu       18.07500000000000       -14.46000000000000        18.07500000000000    
Cu       18.07500000000000       -12.65250000000000        19.88250000000000    
Cu       18.07500000000000       -10.84500000000000        14.46000000000000    
Cu       18.07500000000000       -9.037500000000001        16.26750000000000    
Cu       18.07500000000000       -10.84500000000000        18.07500000000000    
Cu       19.88250000000000       -10.84500000000000        16.26750000000000    
Cu       19.88250000000000       -12.65250000000000        18.07500000000000    
Cu       19.88250000000000       -10.84500000000000        19.88250000000000    
Cu       19.88250000000000       -9.037500000000001        14.46000000000000    
Cu       19.88250000000000       -7.230000000000001        16.26750000000000    
Cu       19.88250000000000       -9.037500000000001        18.07500000000000    
Cu       21.69000000000000       -9.037500000000001        16.26750000000000    
Cu       21.69000000000000       -10.84500000000000        18.07500000000000    
Cu       21.69000000000000       -9.037500000000001        19.88250000000000    
Cu       21.69000000000000       -7.230000000000000        14.46000000000000    
Cu       21.69000000000000       -5.422500000000000        16.26750000000000    
Cu       21.69000000000000       -7.230000000000000        18.07500000000000    
Cu       23.49750000000000       -7.230000000000000        16.26750000000000    
Cu       23.49750000000000       -9.037500000000001        18.07500000000000    
Cu       23.49750000000000       -7.230000000000000        19.88250000000000    
Cu       23.49750000000000       -5.422499999999999        14.46000000000000    
Cu       23.49750000000000       -3.614999999999999        16.26750000000000    
Cu       23.49750000000000       -5.422499999999999        18.07500000000000    
Cu       25.30500000000000       -5.422499999999999        16.26750000000000    
Cu       25.30500000000000       -7.230000000000000        18.07500000000000    
Cu       25.30500000000000       -5.422499999999999        19.88250000000000    
Cu       25.30500000000000       -3.615000000000000        14.46000000000000    
Cu       25.30500000000000       -1.807500000000000        16.26750000000000    
Cu       25.30500000000000       -3.615000000000000        18.07500000000000    
Cu       27.11250000000000       -3.615000000000000        16.26750000000000    
Cu       27.11250000000000       -5.422500000000000        18.07500000000000    
Cu       27.11250000000000       -3.615000000000000        19.88250000000000    
Cu       27.11250000000000       -1.807500000000001        14.46000000000000    
Cu       27.11250000000000      -0.8881784197001252E-15    16.26750000000000    
Cu       27.11250000000000       -1.807500000000001        18.07500000000000    
Cu       28.92000000000000       -1.807500000000001        16.26750000000000    
Cu       28.92000000000000       -3.615000000000001        18.07500000000000    
Cu       28.92000000000000       -1.807500000000001        19.88250000000000    
Cu       28.92000000000000        0.000000000000000        14.46000000000000    
Cu       28.92000000000000        1.807500000000000        16.26750000000000    
Cu       28.92000000000000        0.000000000000000        18.07500000000000    
Cu       30.72750000000000        0.000000000000000        16.26750000000000    
Cu       30.72750000000000       -1.807500000000000        18.07500000000000    
Cu       30.72750000000000        0.000000000000000        19.88250000000000    
Cu       18.07500000000000       -18.07500000000000        18.07500000000000    
Cu       18.07500000000000       -16.26750000000000        19.88250000000000    
Cu       18.07500000000000       -18.07500000000000        21.69000000000000    
Cu       19.88250000000000       -18.07500000000000        19.88250000000000    
Cu       19.88250000000000       -19.88250000000000        21.69000000000000    
Cu       19.88250000000000       -18.07500000000000        23.49750000000000    
Cu       19.88250000000000       -16.26750000000000        18.07500000000000    
Cu       19.88250000000000       -14.46000000000000        19.88250000000000    
Cu       19.88250000000000       -16.26750000000000        21.69000000000000    
Cu       21.69000000000000       -16.26750000000000        19.88250000000000    
Cu       21.69000000000000       -18.07500000000000        21.69000000000000    
Cu       21.69000000000000       -16.26750000000000        23.49750000000000    
Cu       21.69000000000000       -14.46000000000000        18.07500000000000    
Cu       21.69000000000000       -12.65250000000000        19.88250000000000    
Cu       21.69000000000000       -14.46000000000000        21.69000000000000    
Cu       23.49750000000001       -14.46000000000000        19.88250000000000    
Cu       23.49750000000001       -16.26750000000000        21.69000000000000    
Cu       23.49750000000001       -14.46000000000000        23.49750000000000    
Cu       23.49750000000000       -12.65250000000000        18.07500000000000    
Cu       23.49750000000000       -10.84500000000000        19.88250000000000    
Cu       23.49750000000000       -12.65250000000000        21.69000000000000    
Cu       25.30500000000000       -12.65250000000000        19.88250000000000    
Cu       25.30500000000000       -14.46000000000000        21.69000000000000    
Cu       25.30500000000000       -12.65250000000000        23.49750000000000    
Cu       25.30500000000000       -10.84500000000000        18.07500000000000    
Cu       25.30500000000000       -9.037500000000001        19.88250000000000    
Cu       25.30500000000000       -10.84500000000000        21.69000000000000    
Cu       27.11250000000000       -10.84500000000000        19.88250000000000    
Cu       27.11250000000000       -12.65250000000000        21.69000000000000    
Cu       27.11250000000000       -10.84500000000000        23.49750000000000    
Cu       27.11250000000000       -9.037500000000001        18.07500000000000    
Cu       27.11250000000000       -7.230000000000001        19.88250000000000    
Cu       27.11250000000000       -9.037500000000001        21.69000000000000    
Cu       28.92000000000001       -9.037500000000001        19.88250000000000    
Cu       28.92000000000001       -10.84500000000000        21.69000000000000    
Cu       28.92000000000001       -9.037500000000001        23.49750000000000    
Cu       28.92000000000000       -7.230000000000002        18.07500000000000    
Cu       28.92000000000000       -5.422500000000002        19.88250000000000    
Cu       28.92000000000000       -7.230000000000002        21.69000000000000    
Cu       30.72750000000000       -7.230000000000002        19.88250000000000    
Cu       30.72750000000000       -9.037500000000001        21.69000000000000    
Cu       30.72750000000000       -7.230000000000002        23.49750000000000    
Cu       30.72750000000000       -5.422500000000003        18.07500000000000    
Cu       30.72750000000000       -3.615000000000003        19.88250000000000    
Cu       30.72750000000000       -5.422500000000003        21.69000000000000    
Cu       32.53500000000000       -5.422500000000003        19.88250000000000    
Cu       32.53500000000000       -7.230000000000003        21.69000000000000    
Cu       32.53500000000000       -5.422500000000003        23.49750000000000    
Cu       32.53500000000000       -3.615000000000002        18.07500000000000    
Cu       32.53500000000000       -1.807500000000002        19.88250000000000    
Cu       32.53500000000000       -3.615000000000002        21.69000000000000    
Cu       34.34250000000000       -3.615000000000002        19.88250000000000    
Cu       34.34250000000000       -5.422500000000002        21.69000000000000    
Cu       34.34250000000000       -3.615000000000002        23.49750000000000    
Cu       21.69000000000000       -21.69000000000000        21.69000000000000    
Cu       21.69000000000000       -19.88250000000000        23.49750000000000    
Cu       21.69000000000000       -21.69000000000000        25.30500000000000    
Cu       23.49750000000000       -21.69000000000000        23.49750000000000    
Cu       23.49750000000000       -23.49750000000000        25.30500000000000    
Cu       23.49750000000000       -21.69000000000000        27.11250000000000    
Cu       23.49750000000000       -19.88250000000000        21.69000000000000    
Cu       23.49750000000000       -18.07500000000000        23.49750000000000    
Cu       23.49750000000000       -19.88250000000000        25.30500000000000    
Cu       25.30500000000000       -19.88250000000000        23.49750000000000    
Cu       25.30500000000000       -21.69000000000000        25.30500000000000    
Cu       25.30500000000000       -19.88250000000000        27.11250000000000    
Cu       25.30500000000000       -18.07500000000000        21.69000000000000    
Cu       25.30500000000000       -16.26750000000000        23.49750000000000    
Cu       25.30500000000000       -18.07500000000000        25.30500000000000    
Cu       27.11250000000000       -18.07500000000000        23.49750000000000    
Cu       27.11250000000000       -19.88250000000000        25.30500000000000    
Cu       27.11250000000000       -18.07500000000000        27.11250000000000    
Cu       27.11250000000000       -16.26750000000000        21.69000000000000    
Cu       27.11250000000000       -14.46000000000000        23.49750000000000    
Cu       27.11250000000000       -16.26750000000000        25.30500000000000    
Cu       28.92000000000000       -16.26750000000000        23.49750000000000    
Cu       28.92000000000000       -18.07500000000000        25.30500000000000    
Cu       28.92000000000000       -16.26750000000000        27.11250000000000    
Cu       28.92000000000000       -14.46000000000000        21.69000000000000    
Cu       28.92000000000000       -12.65250000000000        23.49750000000000    
Cu       28.92000000000000       -14.46000000000000        25.30500000000000    
Cu       30.72750000000000       -14.46000000000000        23.49750000000000    
Cu       30.72750000000000       -16.26750000000000        25.30500000000000    
Cu       30.72750000000000       -14.46000000000000        27.11250000000000    
Cu       30.72750000000000       -12.65250000000000        21.69000000000000    
Cu       30.72750000000000       -10.84500000000000        23.49750000000000    
Cu       30.72750000000000       -12.65250000000000        25.30500000000000    
Cu       32.53500000000000       -12.65250000000000        23.49750000000000    
Cu       32.53500000000000       -14.46000000000000        25.30500000000000    
Cu       32.53500000000000       -12.65250000000000        27.11250000000000    
Cu       32.53500000000000       -10.84500000000000        21.69000000000000    
Cu       32.53500000000000       -9.037500000000001        23.49750000000000    
Cu       32.53500000000000       -10.84500000000000        25.30500000000000    
Cu       34.34250000000000       -10.84500000000000        23.49750000000000    
Cu       34.34250000000000       -12.65250000000000        25.30500000000000    
Cu       34.34250000000000       -10.84500000000000        27.11250000000000    
Cu       34.34250000000000       -9.037500000000001        21.69000000000000    
Cu       34.34250000000000       -7.230000000000001        23.49750000000000    
Cu       34.34250000000000       -9.037500000000001        25.30500000000000    
Cu       36.15000000000000       -9.037500000000001        23.49750000000000    
Cu       36.15000000000000       -10.84500000000000        25.30500000000000    
Cu       36.15000000000000       -9.037500000000001        27.11250000000000    
Cu       36.15000000000001       -7.230000000000000        21.69000000000000    
Cu       36.15000000000001       -5.422500000000000        23.49750000000000    
Cu       36.15000000000001       -7.230000000000000        25.30500000000000    
Cu       37.95750000000000       -7.230000000000000        23.49750000000000    
Cu       37.95750000000000       -9.037500000000001        25.30500000000000    
Cu       37.95750000000000       -7.230000000000000        27.11250000000000    
Cu       25.30500000000000       -25.30500000000000        25.30500000000000    
Cu       25.30500000000000       -23.49750000000000        27.11250000000000    
Cu       25.30500000000000       -25.30500000000000        28.92000000000000    
Cu       27.11250000000000       -25.30500000000000        27.11250000000000    
Cu       27.11250000000000       -27.11250000000000        28.92000000000000    
Cu       27.11250000000000       -25.30500000000000        30.72750000000000    
Cu       27.11250000000000       -23.49750000000000        25.30500000000000    
Cu       27.11250000000000       -21.69000000000000        27.11250000000000    
Cu       27.11250000000000       -23.49750000000000        28.92000000000000    
Cu       28.92000000000000       -23.49750000000000        27.11250000000000    
Cu       28.92000000000000       -25.30500000000000        28.92000000000000    
Cu       28.92000000000000       -23.49750000000000        30.72750000000000    
Cu       28.92000000000000       -21.69000000000000        25.30500000000000    
Cu       28.92000000000000       -19.88250000000000        27.11250000000000    
Cu       28.92000000000000       -21.69000000000000        28.92000000000000    
Cu       30.72750000000000       -21.69000000000000        27.11250000000000    
Cu       30.72750000000000       -23.49750000000000        28.92000000000000    
Cu       30.72750000000000       -21.69000000000000        30.72750000000000    
Cu       30.72750000000000       -19.88250000000000        25.30500000000000    
Cu       30.72750000000000       -18.07500000000000        27.11250000000000    
Cu       30.72750000000000       -19.88250000000000        28.92000000000000    
Cu       32.53500000000000       -19.88250000000000        27.11250000000000    
Cu       32.53500000000000       -21.69000000000000        28.92000000000000    
Cu       32.53500000000000       -19.88250000000000        30.72750000000000    
Cu       32.53500000000000       -18.07500000000000        25.30500000000000    
Cu       32.53500000000000       -16.26750000000000        27.11250000000000    
Cu       32.53500000000000       -18.07500000000000        28.92000000000000    
Cu       34.34249999999999       -18.07500000000000        27.11250000000000    
Cu       34.34249999999999       -19.88250000000000        28.92000000000000    
Cu       34.34249999999999       -18.07500000000000        30.72750000000000    
Cu       34.34250000000000       -16.26750000000000        25.30500000000000    
Cu       34.34250000000000       -14.46000000000000        27.11250000000000    
Cu       34.34250000000000       -16.26750000000000        28.92000000000000    
Cu       36.15000000000000       -16.26750000000000        27.11250000000000    
Cu       36.15000000000000       -18.07500000000000        28.92000000000000    
Cu       36.15000000000000       -16.26750000000000        30.72750000000000    
Cu       36.15000000000000       -14.46000000000000        25.30500000000000    
Cu       36.15000000000000       -12.65250000000000        27.11250000000000    
Cu       36.15000000000000       -14.46000000000000        28.92000000000000    
Cu       37.95750000000000       -14.46000000000000        27.11250000000000    
Cu       37.95750000000000       -16.26750000000000        28.92000000000000    
Cu       37.95750000000000       -14.46000000000000        30.72750000000000    
Cu       37.95750000000000       -12.65250000000000        25.30500000000000    
Cu       37.95750000000000       -10.84500000000000        27.11250000000000    
Cu       37.95750000000000       -12.65250000000000        28.92000000000000    
Cu       39.76499999999999       -12.65250000000000        27.11250000000000    
Cu       39.76499999999999       -14.46000000000000        28.92000000000000    
Cu       39.76499999999999       -12.65250000000000        30.72750000000000    
Cu       39.76500000000000       -10.84500000000000        25.30500000000000    
Cu       39.76500000000000       -9.037499999999998        27.11250000000000    
Cu       39.76500000000000       -10.84500000000000        28.92000000000000    
Cu       41.57250000000000       -10.84500000000000        27.11250000000000    
Cu       41.57250000000000       -12.65250000000000        28.92000000000000    
Cu       41.57250000000000       -10.84500000000000        30.72750000000000    
Cu       28.92000000000000       -28.92000000000000        28.92000000000000    
Cu       28.92000000000000       -27.11250000000000        30.72750000000000    
Cu       28.92000000000000       -28.92000000000000        32.53500000000000    
Cu       30.72750000000000       -28.92000000000000        30.72750000000000    
Cu       30.72750000000000       -30.72750000000000        32.53500000000000    
Cu       30.72750000000000       -28.92000000000000        34.34250000000000    
Cu       30.72750000000000       -27.11250000000000        28.92000000000000    
Cu       30.72750000000000       -25.30500000000000        30.72750000000000    
Cu       30.72750000000000       -27.11250000000000        32.53500000000000    
Cu       32.53500000000000       -27.11250000000000        30.72750000000000    
Cu       32.53500000000000       -28.92000000000000        32.53500000000000    
Cu       32.53500000000000       -27.11250000000000        34.34250000000000    
Cu       32.53500000000000       -25.30500000000000        28.92000000000000    
Cu       32.53500000000000       -23.49750000000000        30.72750000000000    
Cu       32.53500000000000       -25.30500000000000        32.53500000000000    
Cu       34.34250000000000       -25.30500000000000        30.72750000000000    
Cu       34.34250000000000       -27.11250000000000        32.53500000000000    
Cu       34.34250000000000       -25.30500000000000        34.34250000000000    
Cu       34.34250000000000       -23.49750000000000        28.92000000000000    
Cu       34.34250000000000       -21.69000000000000        30.72750000000000    
Cu       34.34250000000000       -23.49750000000000        32.53500000000000    
Cu       36.15000000000000       -23.49750000000000        30.72750000000000    
Cu       36.15000000000000       -25.30500000000000        32.53500000000000    
Cu       36.15000000000000       -23.49750000000000        34.34250000000000    
Cu       36.15000000000001       -21.69000000000000        28.92000000000000    
Cu       36.15000000000001       -19.88250000000000        30.72750000000000    
Cu       36.15000000000001       -21.69000000000000        32.53500000000000    
Cu       37.95750000000000       -21.69000000000000        30.72750000000000    
Cu       37.95750000000000       -23.49750000000000        32.53500000000000    
Cu       37.95750000000000       -21.69000000000000        34.34250000000000    
Cu       37.95750000000000       -19.88250000000000        28.92000000000000    
Cu       37.95750000000000       -18.07500000000000        30.72750000000000    
Cu       37.95750000000000       -19.88250000000000        32.53500000000000    
Cu       39.76500000000000       -19.88250000000000        30.72750000000000    
Cu       39.76500000000000       -21.69000000000000        32.53500000000000    
Cu       39.76500000000000       -19.88250000000000        34.34250000000000    
Cu       39.76500000000000       -18.07500000000000        28.92000000000000    
Cu       39.76500000000000       -16.26750000000000        30.72750000000000    
Cu       39.76500000000000       -18.07500000000000        32.53500000000000    
Cu       41.57250000000000       -18.07500000000000        30.72750000000000    
Cu       41.57250000000000       -19.88250000000000        32.53500000000000    
Cu       41.57250000000000       -18.07500000000000        34.34250000000000    
Cu       41.57250000000001       -16.26750000000000        28.92000000000000    
Cu       41.57250000000001       -14.46000000000000        30.72750000000000    
Cu       41.57250000000001       -16.26750000000000        32.53500000000000    
Cu       43.38000000000000       -16.26750000000000        30.72750000000000    
Cu       43.38000000000000       -18.07500000000000        32.53500000000000    
Cu       43.38000000000000       -16.26750000000000        34.34250000000000    
Cu       43.38000000000000       -14.46000000000000        28.92000000000000    
Cu       43.38000000000000       -12.65250000000000        30.72750000000000    
Cu       43.38000000000000       -14.46000000000000        32.53500000000000    
Cu       45.18750000000000       -14.46000000000000        30.72750000000000    
Cu       45.18750000000000       -16.26750000000000        32.53500000000000    
Cu       45.18750000000000       -14.46000000000000        34.34250000000000    
 
   16.26750000000000       16.26750000000000       0.000000000000000    
  -1.807500000000000       1.807500000000000       3.615000000000000    
   32.53500000000000      -32.53500000000000       32.53500000000000    
 
   1.000000000000000    
