135
label, x, y, z, Total displacement Ux, Uy, Uz (A)
Fe       0.000000000000000        0.000000000000000        0.000000000000000        0.1845551130000000E-01  -0.9432961350000001E-02  -0.1023907843500000    
Fe       2.327016450000000        0.000000000000000        1.645447500000000        0.2919925889999941E-01  -0.9387894300000000E-02  -0.4953469860000026E-01
Fe       4.654030050000000        0.000000000000000       0.8227237500000001        0.2592656399999971E-01  -0.9359468399999999E-02  -0.4597278570000007E-01
Fe       6.981046500000000        0.000000000000000        0.000000000000000        0.1180856175000056E-01  -0.9386788500000002E-02  -0.9179658765000001E-01
Fe       9.308060100000001        0.000000000000000        1.645447500000000       -0.6968002049999811E-02  -0.9361471950000000E-02  -0.1832282157000000    
Fe       11.63507655000000        0.000000000000000       0.8227237500000001       -0.1999901715000085E-01  -0.9363563849999999E-02  -0.3037290258000001    
Fe       13.96209015000000        0.000000000000000        0.000000000000000       -0.2787288599999904E-01  -0.9412478400000000E-02  -0.4307223867000000    
Fe       16.28910660000000        0.000000000000000        1.645447500000000       -0.4097145464999841E-01  -0.9519367649999999E-02  -0.5511132694500001    
Fe       18.61612305000000        0.000000000000000       0.8227237500000001       -0.5977737345000023E-01  -0.9655059000000001E-02  -0.6424328611500001    
Fe       20.94313665000000        0.000000000000000        0.000000000000000       -0.7395474975000127E-01  -0.9785466450000000E-02  -0.6882412018500000    
Fe       23.27015310000000        0.000000000000000        1.645447500000000       -0.7711820700000160E-01  -0.9841315050000000E-02  -0.6847173307500002    
Fe       25.59716670000000        0.000000000000000       0.8227237500000001       -0.6626710275000391E-01  -0.9810634800000001E-02  -0.6318706215000001    
Fe       27.92418315000000        0.000000000000000        0.000000000000000       -0.4645608015000136E-01  -0.9728004750000000E-02  -0.5360149270500000    
Fe       30.25119960000000        0.000000000000000        1.645447500000000       -0.2382888420000029E-01  -0.9606919650000000E-02  -0.4128073750500001    
Fe       32.57821320000000        0.000000000000000       0.8227237500000001       -0.1256037750003713E-02  -0.9490329000000000E-02  -0.2896241022000000    
Fe       1.163506800000000        2.015254950000000       0.8227237500000001        0.2779747785000009E-01  -0.2552670044999994E-01  -0.5368040835000010E-01
Fe       3.490523250000000        2.015254950000000        0.000000000000000        0.2959779150000008E-01  -0.1759586579999994E-01  -0.2532456705000000E-01
Fe       5.817536850000000        2.015254950000000        1.645447500000000        0.1948233209999994E-01  -0.1002046605000029E-01  -0.4614582345000007E-01
Fe       8.144553300000000        2.015254950000000       0.8227237500000001        0.2156606399999816E-02  -0.9575740649999887E-02  -0.1172982993000000    
Fe       10.47156975000000        2.015254950000000        0.000000000000000       -0.1508367914999909E-01  -0.1980943515000000E-01  -0.2325703027500000    
Fe       12.79858335000000        2.015254950000000        1.645447500000000       -0.2398559715000026E-01  -0.2595798810000005E-01  -0.3672090822000003    
Fe       15.12559980000000        2.015254950000000       0.8227237500000001       -0.3292858080000016E-01  -0.1993799010000008E-01  -0.5017892742000001    
Fe       17.45261340000000        2.015254950000000        0.000000000000000       -0.5020760924999834E-01  -0.9834449400000000E-02  -0.6169360059000000    
Fe       19.77962985000000        2.015254950000000        1.645447500000000       -0.6756322575000340E-01  -0.1038364725000029E-01  -0.6880339641000002    
Fe       22.10664630000000        2.015254950000000       0.8227237500000001       -0.7757707125000124E-01  -0.1794681764999995E-01  -0.7088770315500001    
Fe       24.43365990000000        2.015254950000000        0.000000000000000       -0.7560416729999986E-01  -0.2584735109999992E-01  -0.6805545238500000    
Fe       26.76067635000000        2.015254950000000        1.645447500000000       -0.5952826349999896E-01  -0.2754780930000011E-01  -0.6035313757500000    
Fe       29.08768995000000        2.015254950000000       0.8227237500000001       -0.3602788169999371E-01  -0.2301855795000018E-01  -0.4826805343500001    
Fe       31.41470640000000        2.015254950000000        0.000000000000000       -0.1147518870000042E-01  -0.2295371190000028E-01  -0.3429172497000000    
Fe       33.74172000000000        2.015254950000000        1.645447500000000        0.1188848430000178E-01  -0.2733821174999984E-01  -0.2220963846000001    
Fe       2.327016450000000        4.030509900000000        1.645447500000000        0.3120535109999967E-01  -0.3115034324999977E-01   0.1446700469999973E-01
Fe       4.654030050000000        4.030509900000000       0.8227237500000001        0.2313577844999948E-01  -0.1503302610000024E-01   0.2030456849999984E-01
Fe       6.981046500000000        4.030509900000000        0.000000000000000        0.9777705900000377E-02  -0.4476571949999730E-02  -0.2183763480000000E-01
Fe       9.308060100000001        4.030509900000000        1.645447500000000       -0.6261435749999933E-02  -0.9408781950000389E-02  -0.1215691525500002    
Fe       11.63507655000000        4.030509900000000       0.8227237500000001       -0.2393571645000137E-01  -0.3560691389999970E-01  -0.2809558956000001    
Fe       13.96209015000000        4.030509900000000        0.000000000000000       -0.2416777769999889E-01  -0.3567940935000014E-01  -0.4533383793000000    
Fe       16.28910660000000        4.030509900000000        1.645447500000000       -0.4184899530000052E-01  -0.9642798300000699E-02  -0.6126344239500001    
Fe       18.61612305000000        4.030509900000000       0.8227237500000001       -0.5789179349999785E-01  -0.4772755350000324E-02  -0.7123300288500001    
Fe       20.94313665000000        4.030509900000000        0.000000000000000       -0.7113869609999668E-01  -0.1532411655000043E-01  -0.7544958700500000    
Fe       23.27015310000000        4.030509900000000        1.645447500000000       -0.7904942684999838E-01  -0.3138200835000005E-01  -0.7487025895500000    
Fe       25.59716670000000        4.030509900000000       0.8227237500000001       -0.7614135240000408E-01  -0.4517681205000024E-01  -0.6974770230000000    
Fe       27.92418315000000        4.030509900000000        0.000000000000000       -0.5467580220000201E-01  -0.4055617260000055E-01  -0.5844795561000000    
Fe       30.25119960000000        4.030509900000000        1.645447500000000       -0.2370251805000478E-01  -0.3568186320000022E-01  -0.4127905116000001    
Fe       32.57821320000000        4.030509900000000       0.8227237500000001        0.7205806050002650E-02  -0.4053589485000009E-01  -0.2411339172000000    
Fe       34.90522965000000        4.030509900000000        0.000000000000000        0.2851077869999585E-01  -0.4505306220000005E-01  -0.1281784764000000    
Fe       3.490523250000000        6.045762000000000        0.000000000000000        0.1992796380000028E-01  -0.2321438715000035E-01   0.1022363970000000    
Fe       5.817536850000000        6.045762000000000        1.645447500000000        0.5802657000001155E-02  -0.3597272849999555E-02   0.9567453419999983E-01
Fe       8.144553300000000        6.045762000000000       0.8227237500000001       -0.7990034849999716E-02   0.5772179100000052E-02   0.4201090380000005E-01
Fe       10.47156975000000        6.045762000000000        0.000000000000000       -0.1827717255000039E-01  -0.9103011149999674E-02  -0.1037804301000000    
Fe       12.79858335000000        6.045762000000000        1.645447500000000       -0.2411282969999995E-01  -0.5734826429999895E-01  -0.3670843491000002    
Fe       15.12559980000000        6.045762000000000       0.8227237500000001       -0.2995400445000129E-01  -0.9240834299999889E-02  -0.6303306582000001    
Fe       17.45261340000000        6.045762000000000        0.000000000000000       -0.4014890759999901E-01   0.5564211750000325E-02  -0.7761627157500000    
Fe       19.77962985000000        6.045762000000000        1.645447500000000       -0.5384143905000371E-01  -0.3778957499999791E-02  -0.8298862759500002    
Fe       22.10664630000000        6.045762000000000       0.8227237500000001       -0.6777966045000028E-01  -0.2332444845000037E-01  -0.8364950925000001    
Fe       24.43365990000000        6.045762000000000        0.000000000000000       -0.7960820925000078E-01  -0.4552555514999934E-01  -0.8084720343000000    
Fe       26.76067635000000        6.045762000000000        1.645447500000000       -0.7970166360000164E-01  -0.6449458799999874E-01  -0.7353036052500002    
Fe       29.08768995000000        6.045762000000000       0.8227237500000001       -0.4911456014999871E-01  -0.5253388184999963E-01  -0.5604248379000001    
Fe       31.41470640000000        6.045762000000000        0.000000000000000        0.1683529200001033E-02  -0.5255857709999923E-01  -0.2652057211500000    
Fe       33.74172000000000        6.045762000000000        1.645447500000000        0.3219654974999742E-01  -0.6454264754999972E-01  -0.9036564255000012E-01
Fe       36.06873645000000        6.045762000000000       0.8227237500000001        0.3195757155000223E-01  -0.4553196195000009E-01  -0.1721258925000002E-01
Fe       4.654030050000000        8.061016950000001       0.8227237500000001       -0.1219682864999960E-01  -0.7372596600001557E-02   0.2153426512500000    
Fe       6.981046500000000        8.061016950000001        0.000000000000000       -0.2825666699999996E-01   0.1354715009999907E-01   0.2143037122500000    
Fe       9.308060100000001        8.061016950000001        1.645447500000000       -0.4200299220000048E-01   0.2553121484999998E-01   0.1934373774000000    
Fe       11.63507655000000        8.061016950000001       0.8227237500000001       -0.4568377859999906E-01   0.8041354799999567E-02   0.4440153795000001E-01
Fe       13.96209015000000        8.061016950000001        0.000000000000000       -0.2663541599998709E-02   0.7967585399999422E-02  -0.7784617309500000    
Fe       16.28910660000000        8.061016950000001        1.645447500000000       -0.6245957399997337E-02   0.2549015489999995E-01  -0.9276432994500001    
Fe       18.61612305000000        8.061016950000001       0.8227237500000001       -0.1980617474999846E-01   0.1350024195000010E-01  -0.9485684127000001    
Fe       20.94313665000000        8.061016950000001        0.000000000000000       -0.3568363875000102E-01  -0.7371248550001042E-02  -0.9496444187999999    
Fe       23.27015310000000        8.061016950000001        1.645447500000000       -0.5622749040000485E-01  -0.3047775465000058E-01  -0.9334299138000002    
Fe       25.59716670000000        8.061016950000001       0.8227237500000001       -0.7620616710000050E-01  -0.5156069520000095E-01  -0.9006597132000000    
Fe       27.92418315000000        8.061016950000001        0.000000000000000       -0.9423623610000220E-01  -0.7691056740000146E-01  -0.8208861298500000    
Fe       30.25119960000000        8.061016950000001        1.645447500000000       -0.2375301434999955E-01  -0.6670016310000015E-01  -0.4128656347500002    
Fe       32.57821320000000        8.061016950000001       0.8227237500000001        0.4673191455000136E-01  -0.7700309265000094E-01  -0.4795284600000005E-02
Fe       34.90522965000000        8.061016950000001        0.000000000000000        0.2862572490000304E-01  -0.5168344755000120E-01   0.7496415989999999E-01
Fe       37.23224325000000        8.061016950000001        1.645447500000000        0.8576704499994037E-02  -0.3055640040000007E-01   0.1077165280499999    
Fe       5.817536850000000        10.07627190000000        1.645447500000000       -0.5614769324999980E-01   0.1165483845000104E-01   0.3463825561500000    
Fe       8.144553300000000        10.07627190000000       0.8227237500000001       -0.7633007369999945E-01   0.3271816530000038E-01   0.3791208994500000    
Fe       10.47156975000000        10.07627190000000        0.000000000000000       -0.9452229344999985E-01   0.5796544604999987E-01   0.4588595418000000    
Fe       12.79858335000000        10.07627190000000        1.645447500000000       -0.2423091660000054E-01   0.4774240770000127E-01   0.8668403164500000    
Fe       15.12559980000000        10.07627190000000       0.8227237500000001        0.4622229179999948E-01   0.5807410230000087E-01    1.274955488550000    
Fe       17.45261340000000        10.07627190000000        0.000000000000000        0.2820173325000042E-01   0.3282756255000052E-01    1.354700118750000    
Fe       19.77962985000000        10.07627190000000        1.645447500000000        0.8235052199996318E-02   0.1179786570000019E-01    1.387437356250000    
Fe       22.10664630000000        10.07627190000000       0.8227237500000001       -0.1233648150000022E-01  -0.1130614379999884E-01    1.403651678850000    
Fe       24.43365990000000        10.07627190000000        0.000000000000000       -0.2824682595000283E-01  -0.3223766670000039E-01    1.402622207550000    
Fe       26.76067635000000        10.07627190000000        1.645447500000000       -0.4184870745000069E-01  -0.4428205740000024E-01    1.381760498250000    
Fe       29.08768995000000        10.07627190000000       0.8227237500000001       -0.4536523694999417E-01  -0.2684080124999966E-01    1.232703198300000    
Fe       31.41470640000000        10.07627190000000        0.000000000000000       -0.2223302099999103E-02  -0.2688393600000083E-01   0.4099035129000000    
Fe       33.74172000000000        10.07627190000000        1.645447500000000       -0.5736625349996416E-02  -0.4440973739999876E-01   0.2607459613499998    
Fe       36.06873645000000        10.07627190000000       0.8227237500000001       -0.1936082235000214E-01  -0.3238123260000059E-01   0.2398392077999999    
Fe       38.39575290000000        10.07627190000000        0.000000000000000       -0.3538104284999122E-01  -0.1148001659999842E-01   0.2387759098500000    
Fe       6.981046500000000        12.09152685000000        0.000000000000000       -0.7960937774999888E-01   0.2646805830000076E-01   0.4712790808500000    
Fe       9.308060100000001        12.09152685000000        1.645447500000000       -0.7997661734999895E-01   0.4544720580000039E-01   0.5444192663999996    
Fe       11.63507655000000        12.09152685000000       0.8227237500000001       -0.4951871010000097E-01   0.3351001215000160E-01   0.7192838806499998    
Fe       13.96209015000000        12.09152685000000        0.000000000000000        0.1227720150000167E-02   0.3359188125000045E-01    1.014534184950000    
Fe       16.28910660000000        12.09152685000000        1.645447500000000        0.3178451384999903E-01   0.4567511460000162E-01    1.189371302400000    
Fe       18.61612305000000        12.09152685000000       0.8227237500000001        0.3164279475000242E-01   0.2675507610000061E-01    1.262505206550000    
Fe       20.94313665000000        12.09152685000000        0.000000000000000        0.1978721370000258E-01   0.4562667600000125E-02    1.290531770250000    
Fe       23.27015310000000        12.09152685000000        1.645447500000000        0.5751533699999811E-02  -0.1501213559999748E-01    1.283979979350000    
Fe       25.59716670000000        12.09152685000000       0.8227237500000001       -0.7957368150002253E-02  -0.2440881645000026E-01    1.230328521300000    
Fe       27.92418315000000        12.09152685000000        0.000000000000000       -0.1811386754999944E-01  -0.9589343699998309E-02    1.084549627650000    
Fe       30.25119960000000        12.09152685000000        1.645447500000000       -0.2381996940000164E-01   0.3856625700000116E-01   0.8212350097499999    
Fe       32.57821320000000        12.09152685000000       0.8227237500000001       -0.2952333524999773E-01  -0.9656464049998092E-02   0.5579802333000000    
Fe       34.90522965000000        12.09152685000000        0.000000000000000       -0.3968016809999853E-01  -0.2454284909999949E-01   0.4121738941500000    
Fe       37.23224325000000        12.09152685000000        1.645447500000000       -0.5344721280000186E-01  -0.1522214069999883E-01   0.3584669294999998    
Fe       39.55925970000001        12.09152685000000       0.8227237500000001       -0.6758284800000780E-01   0.4275558600001617E-02   0.3518699945999998    
Fe       8.144553300000000        14.10677895000000       0.8227237500000001       -0.7627201919999926E-01   0.2583857879999840E-01   0.5822516398499998    
Fe       10.47156975000000        14.10677895000000        0.000000000000000       -0.5496640814999942E-01   0.2133132944999971E-01   0.6952333035000000    
Fe       12.79858335000000        14.10677895000000        1.645447500000000       -0.2405848020000256E-01   0.1658330355000182E-01   0.8669523242999999    
Fe       15.12559980000000        14.10677895000000       0.8227237500000001        0.6870976649997473E-02   0.2156856629999915E-01    1.038611084700000    
Fe       17.45261340000000        14.10677895000000        0.000000000000000        0.2826335880000030E-01   0.2624157734999777E-01    1.151551702650000    
Fe       19.77962985000000        14.10677895000000        1.645447500000000        0.3109608779999817E-01   0.1247749094999939E-01    1.202785517100000    
Fe       22.10664630000000        14.10677895000000       0.8227237500000001        0.2308680119999806E-01  -0.3613141649999818E-02    1.208618275800000    
Fe       24.43365990000000        14.10677895000000        0.000000000000000        0.9771056849999127E-02  -0.1415939279999989E-01    1.166496276150000    
Fe       26.76067635000000        14.10677895000000        1.645447500000000       -0.6212712149999078E-02  -0.9247263900000746E-02    1.066792089900000    
Fe       29.08768995000000        14.10677895000000       0.8227237500000001       -0.2379603224999371E-01   0.1687646879999960E-01   0.9073973611500000    
Fe       31.41470640000000        14.10677895000000        0.000000000000000       -0.2390753849999783E-01   0.1684379925000101E-01   0.7349984073000000    
Fe       33.74172000000000        14.10677895000000        1.645447500000000       -0.4149657570000187E-01  -0.9319710899999833E-02   0.5756774622000000    
Fe       36.06873645000000        14.10677895000000       0.8227237500000001       -0.5752094009999809E-01  -0.1434363390000115E-01   0.4759930178999999    
Fe       38.39575290000000        14.10677895000000        0.000000000000000       -0.7088667629999890E-01  -0.3916187850000696E-02   0.4338341079000000    
Fe       40.72276650000001        14.10677895000000        1.645447500000000       -0.7898136030000558E-01   0.1207045394999895E-01   0.4396262227499996    
Fe       9.308060100000001        16.12203390000000        1.645447500000000       -0.5965234964999944E-01   0.8061042599997847E-02   0.6762093967499998    
Fe       11.63507655000000        16.12203390000000       0.8227237500000001       -0.3622482809999994E-01   0.3696364500001437E-02   0.7970816444999999    
Fe       13.96209015000000        16.12203390000000        0.000000000000000       -0.1167102359999816E-01   0.3842931449998588E-02   0.9368477193000001    
Fe       16.28910660000000        16.12203390000000        1.645447500000000        0.1176064185000314E-01   0.8421459299999157E-02    1.057661527800000    
Fe       18.61612305000000        16.12203390000000       0.8227237500000001        0.2772144840000124E-01   0.6751593000000611E-02    1.134660171600000    
Fe       20.94313665000000        16.12203390000000        0.000000000000000        0.2955136785000079E-01  -0.1138398300000176E-02    1.163016893550000    
Fe       23.27015310000000        16.12203390000000        1.645447500000000        0.1950764864999854E-01  -0.8691100650001005E-02    1.142206347450000    
Fe       25.59716670000000        16.12203390000000       0.8227237500000001        0.2148840149995834E-02  -0.9139525350001065E-02    1.071069780300000    
Fe       27.92418315000000        16.12203390000000        0.000000000000000       -0.1505166225000210E-01   0.1070799149999857E-02   0.9558046909500000    
Fe       30.25119960000000        16.12203390000000        1.645447500000000       -0.2388681045000496E-01   0.7159903950000768E-02   0.8211558794999998    
Fe       32.57821320000000        16.12203390000000       0.8227237500000001       -0.3273862829999530E-01   0.1005448649998186E-02   0.6865615144499998    
Fe       34.90522965000000        16.12203390000000        0.000000000000000       -0.5000216984999639E-01  -0.9300826800000550E-02   0.5714003275500000    
Fe       37.23224325000000        16.12203390000000        1.645447500000000       -0.6737036055000800E-01  -0.8985015450001299E-02   0.5003055812999999    
Fe       39.55925970000001        16.12203390000000       0.8227237500000001       -0.7748601090000307E-01  -0.1598476650002567E-02   0.4794664354499999    
Fe       41.88627330000000        16.12203390000000        0.000000000000000       -0.7564486529999925E-01   0.6272180249997206E-02   0.5077798317000000    
 
   17.45261441733600      -18.13728893749500       0.000000000000000    
   17.45261441733600       18.13728893749500       0.000000000000000    
   0.000000000000000       0.000000000000000       2.468172400830000    
 
   1.000000000000000    
