135

Fe       0.006475618  -0.003309811  -0.035926591
Fe       0.826742354  -0.003293998   0.559969404
Fe       1.642090040  -0.003284024   0.272544198
Fe       2.453633355  -0.003293610  -0.032209329
Fe       3.263541087  -0.003284727   0.513059398
Fe       4.075465801  -0.003285461   0.182103412
Fe       4.889199040  -0.003302624  -0.151130662
Fe       5.701100051  -0.003340129   0.383976923
Fe       6.510998483  -0.003387740   0.063259961
Fe       7.322519965  -0.003433497  -0.241488141
Fe       8.137906980  -0.003453093   0.337098305
Fe       8.958210385  -0.003442328   0.066966010
Fe       9.781658621  -0.003413335  -0.188075413
Fe      10.606094988  -0.003370849   0.432505307
Fe      11.430511285  -0.003329940   0.187052508
Fe       0.418001501   0.698150263   0.269839769
Fe       1.235130190   0.700933012  -0.008885813
Fe       2.048076906   0.703591047   0.561158483
Fe       2.858494704   0.703747091   0.247517702
Fe       3.668942481   0.700156321  -0.081603615
Fe       4.482315001   0.697998934   0.448504708
Fe       5.295674112   0.700111214   0.112608588
Fe       6.106107295   0.703656316  -0.216468774
Fe       6.916514605   0.703463615   0.335934574
Fe       7.729497975   0.700809871   0.039946217
Fe       8.546686222   0.698037754  -0.238791061
Fe       9.368823890   0.697441102   0.365584605
Fe      10.193565638   0.699030313   0.119313409
Fe      11.018677618   0.699053066  -0.120321842
Fe      11.843371398   0.697514645   0.499421444
Fe       0.827446246   1.403284055   0.582426142
Fe       1.641110817   1.408939254   0.295799410
Fe       2.452920774   1.412643273  -0.007662328
Fe       3.263789005   1.410912673   0.534694157
Fe       4.074084503   1.401720346   0.190093984
Fe       4.890499078   1.401694909  -0.159066098
Fe       5.700792142   1.410830562   0.362390553
Fe       6.511660090   1.412539349   0.038734639
Fe       7.323508054   1.408837117  -0.264735393
Fe       8.137229359   1.403202769   0.314647337
Fe       8.954745736   1.398362487   0.043946220
Fe       9.778774508   1.399983764  -0.205080546
Fe      10.606139327   1.401694048   0.432511224
Fe      11.433480353   1.399990879   0.204066608
Fe      12.257452782   1.398405908  -0.044974904
Fe       1.231737268   2.113174601   0.035872420
Fe       2.043277020   2.120057799   0.610920012
Fe       2.854934479   2.123345326   0.303415668
Fe       3.667821957   2.118125961  -0.036414186
Fe       4.482270358   2.101197802   0.448548474
Fe       5.296717823   2.118077602   0.067506348
Fe       6.109636664   2.123272355  -0.272337795
Fe       6.921329267   2.119994050   0.286161833
Fe       7.732935663   2.113135983  -0.004832050
Fe       8.545281295   2.105346121  -0.283674398
Fe       9.361745504   2.098690320   0.319348735
Fe      10.188973821   2.102887059   0.092034706
Fe      11.023294712   2.102878394  -0.093054639
Fe      11.850497035   2.098673457   0.545642757
Fe      12.666910183   2.105343873   0.282635495
Fe       1.628713411   2.825840124   0.364233825
Fe       2.439575380   2.833180386   0.075194285
Fe       3.251248108   2.837385321   0.645222764
Fe       4.066453604   2.831248528   0.304254487
Fe       4.898044424   2.831222644  -0.273144467
Fe       5.713284436   2.837370914   0.251861123
Fe       6.525023465   2.833163927  -0.044156022
Fe       7.335948425   2.825840597  -0.333208568
Fe       8.145237056   2.817733051   0.249830732
Fe       8.954722994   2.810335528  -0.027345952
Fe       9.764893654   2.801440836  -0.288030221
Fe      10.606121609   2.805023434   0.432484865
Fe      11.447349163   2.801408371   0.286992444
Fe      12.257493114   2.810292457   0.026303214
Fe      13.066954370   2.817705456   0.615145273
Fe       2.021540055   3.539623417   0.698887739
Fe       2.830955518   3.547014058   0.421699877
Fe       3.641069283   3.555872753   0.161003348
Fe       4.482228924   3.552285722   0.881504497
Fe       5.323446348   3.555910878   0.736027803
Fe       6.133619345   3.547052443   0.475333375
Fe       6.943110492   3.539673602   1.064170125
Fe       7.752389410   3.531566932   0.781184361
Fe       8.563302833   3.524222538   0.492148143
Fe       9.375027243   3.519996436   1.062178245
Fe      10.190289373   3.526116175   0.721202438
Fe      11.021923894   3.526101040   0.143825794
Fe      11.837187149   3.519951636   0.668839811
Fe      12.648903729   3.524172164   0.372829108
Fe      13.459779599   3.531505924   0.083781021
Fe       2.421556885   4.251928038   0.165361081
Fe       3.237924029   4.258587388   0.768374304
Fe       4.065108014   4.254398899   0.541055309
Fe       4.899409779   4.254427625   0.355976907
Fe       5.726628461   4.258667356   0.994673264
Fe       6.543075735   4.252028746   0.731659283
Fe       7.355411882   4.244241936   0.452818165
Fe       8.166984082   4.237373584   1.027869291
Fe       8.978669941   4.234076503   0.720369218
Fe       9.791603257   4.239276318   0.380543729
Fe      10.606098116   4.256173020   0.865502635
Fe      11.420592935   4.239252767   0.484457538
Fe      12.233526134   4.234029474   0.144622419
Fe      13.045191592   4.237299898   0.703127870
Fe      13.856728720   4.244141196   0.412138156
Fe       2.830975888   4.958813168   0.492973821
Fe       3.654948541   4.957231677   0.243941510
Fe       4.482289428   4.955565703   0.881543798
Fe       5.309638869   4.957314918   0.653099942
Fe       6.133640968   4.958954571   0.404053229
Fe       6.951131908   4.954125067   0.999380006
Fe       7.764818632   4.948479231   0.712751588
Fe       8.576642441   4.944778792   0.409296939
Fe       9.387531101   4.946502346   0.951663014
Fe      10.197857515   4.955668568   0.607060039
Fe      11.014315390   4.955657105   0.257894178
Fe      11.824639798   4.946476926   0.779342092
Fe      12.635514214   4.944714146   0.455690094
Fe      13.447321482   4.948372899   0.152222494
Fe      14.260977242   4.953982247   0.731604815
Fe       3.245055351   5.659682436   0.814616455
Fe       4.069772534   5.658150970   0.568352770
Fe       4.894883904   5.658202397   0.328718498
Fe       5.719602541   5.659808898   0.948459308
Fe       6.541699824   5.659222980   0.686801376
Fe       7.358837901   5.656454562   0.408076103
Fe       8.171810789   5.653804491   0.978124157
Fe       8.982215979   5.653647149   0.664488958
Fe       9.792677715   5.657229719   0.335370067
Fe      10.606074663   5.659366247   0.865474870
Fe      11.419464762   5.657206789   0.529573777
Fe      12.229904379   5.653590552   0.200491343
Fe      13.040306277   5.653701363   0.752895818
Fe      13.853253926   5.656293131   0.456908837
Fe      14.670395942   5.659054765   0.178168362

   6.123724356960000      -6.363961030700000     -0.4490502093695105    
   6.123724356960000       6.363961030700000      0.4169751944146375    
   0.000000000000000       0.000000000000000      0.8660254038000000    
 
   2.850000000000000    
