192

Ti       0.001741526  -0.000352468   0.072546183
Ti       0.583837837   0.787974055   0.011650619
Ti       0.873869066   1.579709679   0.499772832
Ti       1.451134464   2.373114970   0.468506428
Ti       1.734133533   1.577305492  -0.015436923
Ti       2.311253345   2.372115560  -0.037186414
Ti       2.595953906   3.168520026   0.462743537
Ti       3.173074816   3.963225451   0.484615949
Ti       3.456081926   3.167507498  -0.031441260
Ti       4.033332925   3.960841323  -0.000103000
Ti       4.323427694   4.752538781   0.511530232
Ti       4.905637926   5.540875977   0.572447295
Ti       5.188472715   4.747979114   0.035478690
Ti       5.769017154   5.537527150   0.102675183
Ti       6.062555615   6.326481367   0.613244258
Ti       6.643267364   7.115131889   0.669008548
Ti       6.926944424   6.321192372   0.142173320
Ti       7.505661250   7.111394514   0.196703728
Ti       7.790008478   7.907049006   0.688651612
Ti       8.366074110   8.703488417   0.699678417
Ti       8.650029877   7.907023240   0.206946609
Ti       9.223753460   8.704140409   0.204555207
Ti       9.515479921   9.498689745   0.682654888
Ti      10.090411357  10.289255971   0.640563197
Ti       0.013484431   1.583341364   0.016413210
Ti       0.588216898   2.373866405  -0.025822050
Ti       0.879669780   3.168363898   0.452248405
Ti       1.453306360   3.965398477   0.449857835
Ti       1.737361976   3.169053225  -0.042856510
Ti       2.313289843   3.965392588  -0.031852587
Ti       2.597738254   4.761168748   0.460053370
Ti       3.176409393   5.551426070   0.514548961
Ti       3.460068811   4.757356472  -0.012284382
Ti       4.040840838   5.546017302   0.043488184
Ti       4.334237892   6.335007224   0.554113565
Ti       4.914786045   7.124494920   0.621312378
Ti       5.197718642   6.331604783   0.084343151
Ti       5.779851847   7.119868836   0.145199464
Ti       6.069943067   7.911595939   0.656857358
Ti       6.647481822   8.705044702   0.688191036
Ti       6.930184198   7.909223402   0.172128287
Ti       7.507537522   8.704039508   0.194062762
Ti       7.792637714   9.500469974   0.694026463
Ti       8.369902151  10.295190104   0.672342211
Ti       8.652661548   9.499467983   0.188321163
Ti       9.230115536  10.292835142   0.157130478
Ti       9.520111847  11.084564761   0.645325776
Ti      10.102116519  11.872904378   0.584557543
Ti       0.023026516   3.169223835  -0.051284037
Ti       0.590341802   3.963866507  -0.066875338
Ti       0.876834123   4.756973293   0.399129742
Ti       1.449073545   5.554489416   0.425734976
Ti       1.737163813   4.762078856  -0.073530021
Ti       2.313050751   5.557515162  -0.019246358
Ti       2.604740486   6.349267791   0.474913511
Ti       3.188815146   7.131639735   0.568258450
Ti       3.469599772   6.343032034   0.021481266
Ti       4.048028227   7.126832783   0.093769083
Ti       4.346573383   7.918601871   0.617517170
Ti       4.916980190   8.707317969   0.675973379
Ti       5.209618411   7.915248947   0.140215845
Ti       5.784650536   8.705797692   0.182346021
Ti       6.076409498   9.500314155   0.704152991
Ti       6.650008367  10.297314829   0.706790919
Ti       6.934094548   9.500994838   0.199496074
Ti       7.510060722  10.297305375   0.188661043
Ti       7.794329037  11.093038493   0.696587262
Ti       8.372923017  11.883336127   0.642258208
Ti       8.656723016  11.089326678   0.169094352
Ti       9.237302233  11.878007321   0.113316928
Ti       9.530702126  12.667017131   0.602681035
Ti      10.111149654  13.456603389   0.535481535
Ti       0.014002870   4.754447191  -0.129487317
Ti       0.582275631   5.547149085  -0.114651259
Ti       0.862881588   6.336562204   0.338230090
Ti       1.418513002   7.124248718   0.368888139
Ti       1.735856727   6.353233298  -0.118998005
Ti       2.307994733   7.141947217   0.032237195
Ti       2.653063930   7.914761446   0.560545822
Ti       3.142052260   8.736947386   0.654775044
Ti       3.490457324   7.936139691   0.096589945
Ti       4.044665200   8.709699140   0.163692094
Ti       4.369458057   9.498244636   0.706276190
Ti       4.920784947  10.294592752   0.739456680
Ti       5.219803383   9.501200324   0.207665100
Ti       5.787071675  10.295833753   0.223402920
Ti       6.073342147  11.088970091   0.757463134
Ti       6.645649211  11.886319350   0.730829934
Ti       6.933711715  11.093937715   0.230057473
Ti       7.509703017  11.889325364   0.175893955
Ti       7.801175824  12.681152360   0.681913196
Ti       8.385158128  13.463478624   0.588740445
Ti       8.666106143  12.674974560   0.135408350
Ti       9.244408895  13.458832023   0.063046370
Ti       9.542573925  14.250629520   0.539238524
Ti      10.112842302  15.039361199   0.480465538
Ti      -0.003576675   6.330524303  -0.194159907
Ti       0.557741176   7.124021592  -0.186621895
Ti       0.854327641   7.908492983   0.250878212
Ti       1.375221826   8.699328236   0.209709420
Ti       1.732500208   7.928417236  -0.242531698
Ti       2.272709080   8.671849098  -0.871110627
Ti       2.634985745   9.532765963   0.129248429
Ti       3.175114975  10.275718104  -0.242991475
Ti       3.532632591   9.505039559   0.209239735
Ti       4.053168145  10.295897574   0.250522439
Ti       4.349770717  11.080327028   0.813470112
Ti       4.911027492  11.873753196  -0.193991204
Ti       5.210628216  11.086487298   0.286017083
Ti       5.778835594  11.879247414   0.271370974
Ti       6.059549051  12.668646514   0.818573265
Ti       6.615572248  13.456046955   0.786722273
Ti       6.932334801  12.684979050   0.275348370
Ti       7.504235821  13.473561724   0.125124287
Ti       7.848985544  14.246487452   0.596619491
Ti       8.338273754  15.068681003   0.501859484
Ti       8.686429041  14.267976945   0.060319429
Ti       9.240374693  15.041666856  -0.007202431
Ti       9.564904386  15.830211992   0.449998214
Ti      10.116426453  16.626593858   0.416977642
Ti      -0.013146850   7.909748812  -0.260262566
Ti       0.538355120   8.706227804  -0.293232444
Ti       0.863066318   9.494842585   0.164114328
Ti       1.417171049  10.268426246   0.096879058
Ti       1.765536564   9.467665831  -0.344925291
Ti       2.254556596  10.289805926  -0.439056195
Ti       2.599649297  11.062623748   0.032450050
Ti       3.171660103  11.851235950  -0.118695311
Ti       3.488936074  11.080326864  -0.630510897
Ti       4.044584762  11.867830712  -0.661614152
Ti       4.325180161  12.657269503  -0.114379466
Ti       4.893385101  13.449893597  -0.129117616
Ti       5.192960070  12.662661637  -0.649024585
Ti       5.754345662  13.456070055  -0.656634603
Ti       6.050746962  14.240484694  -0.093692776
Ti       6.571336963  15.031581994  -0.052471952
Ti       6.928502028  14.261116336   0.399724499
Ti       7.469098403  15.003507166   0.027987492
Ti       7.830251808  15.864824766   0.028424502
Ti       8.371070833  16.607614689   0.398994786
Ti       8.727987030  15.837004000  -0.053059746
Ti       9.248990592  16.627834296  -0.094290241
Ti       9.545291820  17.412323099   0.342879807
Ti      10.106767700  18.205644369   0.350604751
Ti      -0.009210942   9.497183228  -0.323583711
Ti       0.561103021  10.285959928  -0.382155124
Ti       0.859534214  11.077753223   0.094066016
Ti       1.437935160  11.861648675   0.021721603
Ti       1.718757268  11.073087968  -0.431536980
Ti       2.302778040  11.855305232  -0.524750220
Ti       2.594381535  12.647118426  -0.018824466
Ti       3.170131390  13.442483579  -0.073147059
Ti       3.458380675  12.650115848  -0.573942296
Ti       4.030529047  13.447486580  -0.600504027
Ti       4.316949350  14.240540512  -0.066488507
Ti       4.884174497  15.035288459  -0.050863676
Ti       5.183181475  14.241783033  -0.582606791
Ti       5.734566663  15.038296862  -0.549457923
Ti       6.059043071  15.826972684  -0.006779023
Ti       6.613128299  16.600597796   0.060471726
Ti       6.961042579  15.800069266  -0.497796291
Ti       7.450579791  16.621901150  -0.403044762
Ti       7.795354987  17.394621333   0.125088963
Ti       8.367436130  18.183311419   0.275244790
Ti       8.684186243  17.412108464  -0.213075236
Ti       9.240137879  18.199736896  -0.181928730
Ti       9.520947096  18.989127677   0.271108863
Ti      10.089256910  19.781813066   0.285994173
Ti      -0.007178264  11.080036309  -0.378436555
Ti       0.573288218  11.869560698  -0.445571092
Ti       0.866570652  12.658529113   0.043729774
Ti       1.447185384  13.447194019  -0.012117254
Ti       1.731061279  12.653251397  -0.485198902
Ti       2.309543022  13.443421155  -0.539596786
Ti       2.593937809  14.239108031  -0.031714088
Ti       3.169852262  15.035556980  -0.042654836
Ti       3.453962031  14.239061488  -0.549857969
Ti       4.027548212  15.036204756  -0.547316549
Ti       4.318990090  15.830725706  -0.025588966
Ti       4.893765871  16.621281170   0.016602278
Ti       5.186636976  15.829250942  -0.519176231
Ti       5.756982440  16.618000191  -0.460602352
Ti       6.055267791  17.409776420   0.063090583
Ti       6.633659641  18.193653149   0.135320867
Ti       6.914500175  17.405138126  -0.411328368
Ti       7.498694234  18.187262125  -0.318022679
Ti       7.790157041  18.979134922   0.176015954
Ti       8.366257084  19.774462519   0.230208293
Ti       8.654103694  18.982086645  -0.269199614
Ti       9.226568345  19.779370207  -0.242541018
Ti       9.512919326  20.572495924   0.223631836
Ti      10.080341491  21.367218588   0.208090103

10.392305   0.000000   0.500000
0.000000  12.664000  -0.500000
0.000000   0.000000   1.000000

2.93598
