192
label, x, y, z
Ti       0.000000000000000        0.000000000000000        0.000000000000000    
Ti      0.5773502691900000       0.7915000000000000        0.000000000000000    
Ti      0.8660254037800000        1.583000000000000       0.5000000000000000    
Ti       1.443375672970000        2.374500000000000       0.5000000000000000    
Ti       1.732050807568880        1.583000000000000        0.000000000000000    
Ti       2.309401076758880        2.374500000000000        0.000000000000000    
Ti       2.598076211348880        3.166000000000000       0.5000000000000000    
Ti       3.175426480538880        3.957500000000000       0.5000000000000000    
Ti       3.464101615137760        3.166000000000000        0.000000000000000    
Ti       4.041451884327760        3.957500000000000        0.000000000000000    
Ti       4.330127018917760        4.749000000000000       0.5000000000000000    
Ti       4.907477288107760        5.540500000000000       0.5000000000000000    
Ti       5.196152422706640        4.749000000000000        0.000000000000000    
Ti       5.773502691896640        5.540500000000000        0.000000000000000    
Ti       6.062177826486640        6.332000000000000       0.5000000000000000    
Ti       6.639528095676640        7.123500000000000       0.5000000000000000    
Ti       6.928203230275520        6.332000000000000        0.000000000000000    
Ti       7.505553499465520        7.123500000000000        0.000000000000000    
Ti       7.794228634055520        7.915000000000000       0.5000000000000000    
Ti       8.371578903245521        8.706500000000000       0.5000000000000000    
Ti       8.660254037844400        7.915000000000000        0.000000000000000    
Ti       9.237604307034399        8.706500000000000        0.000000000000000    
Ti       9.526279441624400        9.497999999999999       0.5000000000000000    
Ti       10.10362971081440        10.28950000000000       0.5000000000000000    
Ti       0.000000000000000        1.583000000000000        0.000000000000000    
Ti      0.5773502691900000        2.374500000000000        0.000000000000000    
Ti      0.8660254037800000        3.166000000000000       0.5000000000000000    
Ti       1.443375672970000        3.957500000000000       0.5000000000000000    
Ti       1.732050807568880        3.166000000000000        0.000000000000000    
Ti       2.309401076758880        3.957500000000000        0.000000000000000    
Ti       2.598076211348880        4.749000000000000       0.5000000000000000    
Ti       3.175426480538880        5.540500000000000       0.5000000000000000    
Ti       3.464101615137760        4.749000000000000        0.000000000000000    
Ti       4.041451884327760        5.540500000000000        0.000000000000000    
Ti       4.330127018917760        6.332000000000000       0.5000000000000000    
Ti       4.907477288107760        7.123500000000000       0.5000000000000000    
Ti       5.196152422706640        6.332000000000000        0.000000000000000    
Ti       5.773502691896640        7.123500000000000        0.000000000000000    
Ti       6.062177826486640        7.915000000000000       0.5000000000000000    
Ti       6.639528095676640        8.706500000000000       0.5000000000000000    
Ti       6.928203230275520        7.915000000000000        0.000000000000000    
Ti       7.505553499465520        8.706500000000000        0.000000000000000    
Ti       7.794228634055520        9.497999999999999       0.5000000000000000    
Ti       8.371578903245521        10.28950000000000       0.5000000000000000    
Ti       8.660254037844400        9.497999999999999        0.000000000000000    
Ti       9.237604307034399        10.28950000000000        0.000000000000000    
Ti       9.526279441624400        11.08100000000000       0.5000000000000000    
Ti       10.10362971081440        11.87250000000000       0.5000000000000000    
Ti       0.000000000000000        3.166000000000000        0.000000000000000    
Ti      0.5773502691900000        3.957500000000000        0.000000000000000    
Ti      0.8660254037800000        4.749000000000000       0.5000000000000000    
Ti       1.443375672970000        5.540500000000000       0.5000000000000000    
Ti       1.732050807568880        4.749000000000000        0.000000000000000    
Ti       2.309401076758880        5.540500000000000        0.000000000000000    
Ti       2.598076211348880        6.332000000000000       0.5000000000000000    
Ti       3.175426480538880        7.123500000000000       0.5000000000000000    
Ti       3.464101615137760        6.332000000000000        0.000000000000000    
Ti       4.041451884327760        7.123500000000000        0.000000000000000    
Ti       4.330127018917760        7.915000000000000       0.5000000000000000    
Ti       4.907477288107760        8.706500000000000       0.5000000000000000    
Ti       5.196152422706640        7.914999999999999        0.000000000000000    
Ti       5.773502691896640        8.706499999999998        0.000000000000000    
Ti       6.062177826486640        9.497999999999999       0.5000000000000000    
Ti       6.639528095676640        10.28950000000000       0.5000000000000000    
Ti       6.928203230275520        9.497999999999999        0.000000000000000    
Ti       7.505553499465520        10.28950000000000        0.000000000000000    
Ti       7.794228634055520        11.08100000000000       0.5000000000000000    
Ti       8.371578903245521        11.87250000000000       0.5000000000000000    
Ti       8.660254037844400        11.08100000000000        0.000000000000000    
Ti       9.237604307034399        11.87250000000000        0.000000000000000    
Ti       9.526279441624400        12.66400000000000       0.5000000000000000    
Ti       10.10362971081440        13.45550000000000       0.5000000000000000    
Ti       0.000000000000000        4.749000000000000        0.000000000000000    
Ti      0.5773502691900000        5.540500000000000        0.000000000000000    
Ti      0.8660254037800000        6.332000000000000       0.5000000000000000    
Ti       1.443375672970000        7.123500000000000       0.5000000000000000    
Ti       1.732050807568880        6.332000000000000        0.000000000000000    
Ti       2.309401076758880        7.123500000000000        0.000000000000000    
Ti       2.598076211348880        7.915000000000000       0.5000000000000000    
Ti       3.175426480538880        8.706500000000000       0.5000000000000000    
Ti       3.464101615137760        7.914999999999999        0.000000000000000    
Ti       4.041451884327760        8.706499999999998        0.000000000000000    
Ti       4.330127018917760        9.497999999999999       0.5000000000000000    
Ti       4.907477288107760        10.28950000000000       0.5000000000000000    
Ti       5.196152422706640        9.497999999999999        0.000000000000000    
Ti       5.773502691896640        10.28950000000000        0.000000000000000    
Ti       6.062177826486640        11.08100000000000       0.5000000000000000    
Ti       6.639528095676640        11.87250000000000       0.5000000000000000    
Ti       6.928203230275520        11.08100000000000        0.000000000000000    
Ti       7.505553499465520        11.87250000000000        0.000000000000000    
Ti       7.794228634055520        12.66400000000000       0.5000000000000000    
Ti       8.371578903245521        13.45550000000000       0.5000000000000000    
Ti       8.660254037844400        12.66400000000000        0.000000000000000    
Ti       9.237604307034399        13.45550000000000        0.000000000000000    
Ti       9.526279441624400        14.24700000000000       0.5000000000000000    
Ti       10.10362971081440        15.03850000000000       0.5000000000000000    
Ti       0.000000000000000        6.332000000000000        0.000000000000000    
Ti      0.5773502691900000        7.123500000000000        0.000000000000000    
Ti      0.8660254037800000        7.915000000000000       0.5000000000000000    
Ti       1.443375672970000        8.706500000000000       0.5000000000000000    
Ti       1.732050807568880        7.915000000000000        0.000000000000000    
Ti       2.309401076758880        8.706500000000000        0.000000000000000    
Ti       2.598076211348880        9.497999999999999       0.5000000000000000    
Ti       3.175426480538880        10.28950000000000       0.5000000000000000    
Ti       3.464101615137760        9.497999999999999        0.000000000000000    
Ti       4.041451884327760        10.28950000000000        0.000000000000000    
Ti       4.330127018917760        11.08100000000000       0.5000000000000000    
Ti       4.907477288107760        11.87250000000000       0.5000000000000000    
Ti       5.196152422706640        11.08100000000000        0.000000000000000    
Ti       5.773502691896640        11.87250000000000        0.000000000000000    
Ti       6.062177826486640        12.66400000000000       0.5000000000000000    
Ti       6.639528095676640        13.45550000000000       0.5000000000000000    
Ti       6.928203230275520        12.66400000000000        0.000000000000000    
Ti       7.505553499465520        13.45550000000000        0.000000000000000    
Ti       7.794228634055520        14.24700000000000       0.5000000000000000    
Ti       8.371578903245521        15.03850000000000       0.5000000000000000    
Ti       8.660254037844400        14.24700000000000        0.000000000000000    
Ti       9.237604307034399        15.03850000000000        0.000000000000000    
Ti       9.526279441624400        15.83000000000000       0.5000000000000000    
Ti       10.10362971081440        16.62150000000000       0.5000000000000000    
Ti       0.000000000000000        7.915000000000000        0.000000000000000    
Ti      0.5773502691900000        8.706500000000000        0.000000000000000    
Ti      0.8660254037800000        9.497999999999999       0.5000000000000000    
Ti       1.443375672970000        10.28950000000000       0.5000000000000000    
Ti       1.732050807568880        9.497999999999999        0.000000000000000    
Ti       2.309401076758880        10.28950000000000        0.000000000000000    
Ti       2.598076211348880        11.08100000000000       0.5000000000000000    
Ti       3.175426480538880        11.87250000000000       0.5000000000000000    
Ti       3.464101615137760        11.08100000000000        0.000000000000000    
Ti       4.041451884327760        11.87250000000000        0.000000000000000    
Ti       4.330127018917760        12.66400000000000       0.5000000000000000    
Ti       4.907477288107760        13.45550000000000       0.5000000000000000    
Ti       5.196152422706640        12.66400000000000        0.000000000000000    
Ti       5.773502691896640        13.45550000000000        0.000000000000000    
Ti       6.062177826486640        14.24700000000000       0.5000000000000000    
Ti       6.639528095676640        15.03850000000000       0.5000000000000000    
Ti       6.928203230275520        14.24700000000000        0.000000000000000    
Ti       7.505553499465520        15.03850000000000        0.000000000000000    
Ti       7.794228634055520        15.83000000000000       0.5000000000000000    
Ti       8.371578903245521        16.62150000000000       0.5000000000000000    
Ti       8.660254037844400        15.83000000000000        0.000000000000000    
Ti       9.237604307034399        16.62150000000000        0.000000000000000    
Ti       9.526279441624400        17.41300000000000       0.5000000000000000    
Ti       10.10362971081440        18.20450000000000       0.5000000000000000    
Ti       0.000000000000000        9.497999999999999        0.000000000000000    
Ti      0.5773502691900000        10.28950000000000        0.000000000000000    
Ti      0.8660254037800000        11.08100000000000       0.5000000000000000    
Ti       1.443375672970000        11.87250000000000       0.5000000000000000    
Ti       1.732050807568880        11.08100000000000        0.000000000000000    
Ti       2.309401076758880        11.87250000000000        0.000000000000000    
Ti       2.598076211348880        12.66400000000000       0.5000000000000000    
Ti       3.175426480538880        13.45550000000000       0.5000000000000000    
Ti       3.464101615137760        12.66400000000000        0.000000000000000    
Ti       4.041451884327760        13.45550000000000        0.000000000000000    
Ti       4.330127018917760        14.24700000000000       0.5000000000000000    
Ti       4.907477288107760        15.03850000000000       0.5000000000000000    
Ti       5.196152422706640        14.24700000000000        0.000000000000000    
Ti       5.773502691896640        15.03850000000000        0.000000000000000    
Ti       6.062177826486640        15.83000000000000       0.5000000000000000    
Ti       6.639528095676640        16.62150000000000       0.5000000000000000    
Ti       6.928203230275520        15.83000000000000        0.000000000000000    
Ti       7.505553499465520        16.62150000000000        0.000000000000000    
Ti       7.794228634055520        17.41300000000000       0.5000000000000000    
Ti       8.371578903245521        18.20450000000000       0.5000000000000000    
Ti       8.660254037844400        17.41300000000000        0.000000000000000    
Ti       9.237604307034399        18.20450000000000        0.000000000000000    
Ti       9.526279441624400        18.99600000000000       0.5000000000000000    
Ti       10.10362971081440        19.78750000000000       0.5000000000000000    
Ti       0.000000000000000        11.08100000000000        0.000000000000000    
Ti      0.5773502691900000        11.87250000000000        0.000000000000000    
Ti      0.8660254037800000        12.66400000000000       0.5000000000000000    
Ti       1.443375672970000        13.45550000000000       0.5000000000000000    
Ti       1.732050807568880        12.66400000000000        0.000000000000000    
Ti       2.309401076758880        13.45550000000000        0.000000000000000    
Ti       2.598076211348880        14.24700000000000       0.5000000000000000    
Ti       3.175426480538880        15.03850000000000       0.5000000000000000    
Ti       3.464101615137760        14.24700000000000        0.000000000000000    
Ti       4.041451884327760        15.03850000000000        0.000000000000000    
Ti       4.330127018917760        15.83000000000000       0.5000000000000000    
Ti       4.907477288107760        16.62150000000000       0.5000000000000000    
Ti       5.196152422706640        15.83000000000000        0.000000000000000    
Ti       5.773502691896640        16.62150000000000        0.000000000000000    
Ti       6.062177826486640        17.41300000000000       0.5000000000000000    
Ti       6.639528095676640        18.20450000000000       0.5000000000000000    
Ti       6.928203230275520        17.41300000000000        0.000000000000000    
Ti       7.505553499465520        18.20450000000000        0.000000000000000    
Ti       7.794228634055520        18.99600000000000       0.5000000000000000    
Ti       8.371578903245521        19.78750000000000       0.5000000000000000    
Ti       8.660254037844400        18.99600000000000        0.000000000000000    
Ti       9.237604307034399        19.78750000000000        0.000000000000000    
Ti       9.526279441624400        20.57900000000000       0.5000000000000000    
Ti       10.10362971081440        21.37050000000000       0.5000000000000000    
 
10.392304845413280 0. 0.
0.000000000000000 12.66400000000000 0.000000000000000
0.000000000000000 0.000000000000000 1.000000000000000

2.936
