6
label, x, y, z
Ni       0.000000000000000        0.000000000000000        0.000000000000000    
Ni      0.3535533905932738       0.6123724356957945        0.000000000000000    
Ni       0.000000000000000       0.8164965809277260       0.5773502691896257    
Ni      0.3535533905932738       0.2041241452319315       0.5773502691896257    
Ni       0.000000000000000       0.4082482904638630        1.154700538379251    
Ni      0.3535533905932738        1.020620726159658        1.154700538379251    
 
  0.7071067811865476       0.000000000000000       0.000000000000000    
   0.000000000000000       1.224744871391589       0.000000000000000    
   0.000000000000000       0.000000000000000       1.732050807568877    
 
   3.520000000000000    
